1.火狐css3tranform缩放抖动
一、现在，像Chrome, FireFox, Safari, IE9+和最新版本的Opera都支持硬件加速，当它们检测到页面中某个DOM元素应用了某些CSS规则时就会开启，最显著的特征的元素的3D变换。

.tran {  
    -webkit-transform: translate3d(200px,200px,200px)
   rotate3d(200px,200px,200px,-120deg)
   scale3d(0.5, 0.5, 0.5);}
二、可是在一些情况下，我们并不需要对元素应用3D变换的效果，那怎么办呢？这时候我们可以使用个小技巧“欺骗”浏览器来开启硬件加速。

.tran {  
-webkit-transform: translateZ(0);  
-moz-transform: translateZ(0);  
-ms-transform: translateZ(0);  
-o-transform: translateZ(0);  
transform: translateZ(0);   /* Other transform properties here */}
在 Chrome and Safari中，当我们使用CSS transforms 或者 animations时可能会有页面闪烁的效果，下面的代码可以修复此情况：

.tran {  
-webkit-backface-visibility: hidden;  
-moz-backface-visibility: hidden;  
-ms-backface-visibility: hidden; 
backface-visibility: hidden;  
-webkit-perspective: 1000;  
-moz-perspective: 1000;  
-ms-perspective: 1000;  
perspective: 1000;   /* Other transform properties here */}


2.Safari input 光标不居中解决方案
在iPhone的Safari中发现了这个问题，line-height 属性不能使input输入框中的光标垂直居中，总会有偏移量。查找资料之后发现要换一写法。

height= padding + font-size;  这样通过padding方式达到的居中效果没有问题。如果高度是30px，字体大小是16px，设置line-height和字体大小相同，计算得上下内边距是7px。

input{

　　padding:7px 0;

　　height: 30px;

　　font-size: 16px;

　　line-height: 16px;

}

3.antd
antd的Input输入框组件在获取焦点时会有蓝色的边框显示，最初尝试通过设置outline:none的方法去掉这个边框，但是发现这个方法不起作用。

最终通过在F12调试页面下的Elements选项下的多次观察和实验，发现antd的Input组件在获取焦点情况下的蓝色边框是通过box-shadow来实现的，找到问题所在就很好解决了。

解决方法的css样式如下：

.ant-input-affix-wrapper .ant-input:focus {
    border: none;
    border-bottom: 1px solid white !important;
    box-shadow: none;
}
